FoamFile
{
	version	2.0;
	format	ascii;
	class	dictionary;
	location	"system";
	object	createPatchDict;
}
pointSync	false;
patches	(
	{
		name	cylinder;
		patchInfo
		{
			type	wall;
		}
		constructFrom	patches;
		patches	(cylinder_default);
	}
);
