FoamFile
{
	version	2.0;
	class	dictionary;
	format	ascii;
	location	"constant";
	object	thermophysicalProperties;
}
thermoType
{
	type	hePsiThermo;
	mixture	reactingMixture;
	transport	sutherland;
	thermo	janaf;
	equationOfState	perfectGas;
	specie	specie;
	energy	sensibleEnthalpy;
}
#include "/home/gagan/Videos/foam/species.foam"
#include "/home/gagan/Videos/foam/thermo.foam"
inertSpecie	N2;
liquids
{
	     
	{
		defaultCoeffs	yes;
	}
}
solids
{
}
