FoamFile
{
	version	2.0;
	format	binary;
	class	volScalarField;
	location	"0";
	object	k;
	arch	"LSB;label=32;scalar=64";
}
dimensions	[0 2 -2 0 0 0 0];
internalField	uniform 0.009999999776482582;
boundaryField
{
	symmetry
	{
		type	symmetry;
	}
	cylinder
	{
		type	kqRWallFunction;
		value	uniform 0.009999999776482582;
	}
}
